  
       XFOIL         Version 6.99
  
 Calculated polar for: Profile2.txt                                    
  
 1 1 Reynolds number fixed          Mach number fixed         
  
 xtrf =   1.000 (top)        1.000 (bottom)  
 Mach =   0.222     Re =     0.172 e 6     Ncrit =   9.000
  
   alpha    CL        CD       CDp       CM     Top_Xtr  Bot_Xtr
  ------ -------- --------- --------- -------- -------- --------
  10.111   1.3239   0.02823   0.02049  -0.0538   0.1267   1.0000
